
.dc V2 0 5 1
.control
.save all
.endc
.end
